/*--------------------------------*- C++ -*----------------------------------*\
| =========                 |                                                 |
| \\      /  F ield         | OpenFOAM: The Open Source CFD Toolbox           |
|  \\    /   O peration     | Version:  plus                                  |
|   \\  /    A nd           | Web:      www.OpenFOAM.com                      |
|    \\/     M anipulation  |                                                 |
\*---------------------------------------------------------------------------*/
FoamFile
{
    version     2.0;
    format      ascii;
    class       dictionary;
    location    "system";
    object      fvSolution;
}
// * * * * * * * * * * * * * * * * * * * * * * * * * * * * * * * * * * * * * //

solvers
{
    p
    {
        solver           GAMG;
        tolerance        1e-10;
        relTol           1e-6;
        smoother         DICGaussSeidel;
    }

    "(p|pcorr)Final"
    {
        $p;
        relTol          0;
    }

    Phi
    {
        $p;
    }

    "(U|cellDisplacement)"
    {
        solver          smoothSolver;
        smoother        symGaussSeidel;
        tolerance       1e-10;
        relTol          1e-6;
    }

    "(U|cellDisplacement)Final"
    {
        $U;
        relTol          0;
    }
}

PIMPLE
{
    nCorrectors 2;
    nNonOrthogonalCorrectors 0;
    tolerance 1.0e-14;
    relTol 5e-3;
    pisoTol 1e-6;
    consistent  true;

    nOuterCorrectors 50;

    residualControl
    {
        p               5e-5;
        U               5e-5;
    }

    outerCorrectorResidualControl
    {
        U
        {
            tolerance       5e-5;
            relTol          0.1;
        }
        "(k|epsilon|omega)"
        {
            tolerance       5e-5;
            relTol          0.1;
        }
    }

}

potentialFlow
{
    nNonOrthogonalCorrectors 5;
}


// ************************************************************************* //
